
.SUBCKT ram DOUT_7_  DOUT_6_  DOUT_5_  DOUT_4_  DOUT_3_  DOUT_2_  DOUT_1_  DOUT_0_  A_9_  A_8_  A_7_  A_6_  A_5_  A_4_  A_3_  A_2_  A_1_  A_0_  CLK  CS  DIN_7_  DIN_6_  DIN_5_  DIN_4_  DIN_3_  DIN_2_  DIN_1_  DIN_0_  RD  WR  gnd  vdd  
XI11_7/XI2/MN0_15 XI11_7/net21_0_ ysel_15_ XI11_7/net9 gnd MN l=1.8e-07 w=1.5e-06 $[n18ll]
XI11_7/XI2/MN0_14 XI11_7/net21_1_ ysel_14_ XI11_7/net9 gnd MN l=1.8e-07 w=1.5e-06 $[n18ll] 
XI11_7/XI2/MN0_13 XI11_7/net21_2_ ysel_13_ XI11_7/net9 gnd MN l=1.8e-07 w=1.5e-06 $[n18ll] 
XI11_7/XI2/MN0_12 XI11_7/net21_3_ ysel_12_ XI11_7/net9 gnd MN l=1.8e-07 w=1.5e-06 $[n18ll] 
XI11_7/XI2/MN0_11 XI11_7/net21_4_ ysel_11_ XI11_7/net9 gnd MN l=1.8e-07 w=1.5e-06 $[n18ll] 
XI11_7/XI2/MN0_10 XI11_7/net21_5_ ysel_10_ XI11_7/net9 gnd MN l=1.8e-07 w=1.5e-06 $[n18ll] 
XI11_7/XI2/MN0_9 XI11_7/net21_6_ ysel_9_ XI11_7/net9 gnd MN l=1.8e-07 w=1.5e-06 $[n18ll] 
XI11_7/XI2/MN0_8 XI11_7/net21_7_ ysel_8_ XI11_7/net9 gnd MN l=1.8e-07 w=1.5e-06 $[n18ll] 
XI11_7/XI2/MN0_7 XI11_7/net21_8_ ysel_7_ XI11_7/net9 gnd MN l=1.8e-07 w=1.5e-06 $[n18ll] 
XI11_7/XI2/MN0_6 XI11_7/net21_9_ ysel_6_ XI11_7/net9 gnd MN l=1.8e-07 w=1.5e-06 $[n18ll] 
XI11_7/XI2/MN0_5 XI11_7/net21_10_ ysel_5_ XI11_7/net9 gnd MN l=1.8e-07 w=1.5e-06 $[n18ll] 
XI11_7/XI2/MN0_4 XI11_7/net21_11_ ysel_4_ XI11_7/net9 gnd MN l=1.8e-07 w=1.5e-06 $[n18ll] 
XI11_7/XI2/MN0_3 XI11_7/net21_12_ ysel_3_ XI11_7/net9 gnd MN l=1.8e-07 w=1.5e-06 $[n18ll] 
XI11_7/XI2/MN0_2 XI11_7/net21_13_ ysel_2_ XI11_7/net9 gnd MN l=1.8e-07 w=1.5e-06 $[n18ll] 
XI11_7/XI2/MN0_1 XI11_7/net21_14_ ysel_1_ XI11_7/net9 gnd MN l=1.8e-07 w=1.5e-06 $[n18ll] 
XI11_7/XI2/MN0_0 XI11_7/net21_15_ ysel_0_ XI11_7/net9 gnd MN l=1.8e-07 w=1.5e-06 $[n18ll] 
XI11_7/XI2/MN1_15 XI11_7/net20_0_ ysel_15_ XI11_7/net12 gnd MN l=1.8e-07 w=1.5e-06 $[n18ll] 
XI11_7/XI2/MN1_14 XI11_7/net20_1_ ysel_14_ XI11_7/net12 gnd MN l=1.8e-07 w=1.5e-06 $[n18ll] 
XI11_7/XI2/MN1_13 XI11_7/net20_2_ ysel_13_ XI11_7/net12 gnd MN l=1.8e-07 w=1.5e-06 $[n18ll] 
XI11_7/XI2/MN1_12 XI11_7/net20_3_ ysel_12_ XI11_7/net12 gnd MN l=1.8e-07 w=1.5e-06 $[n18ll] 
XI11_7/XI2/MN1_11 XI11_7/net20_4_ ysel_11_ XI11_7/net12 gnd MN l=1.8e-07 w=1.5e-06 $[n18ll] 
XI11_7/XI2/MN1_10 XI11_7/net20_5_ ysel_10_ XI11_7/net12 gnd MN l=1.8e-07 w=1.5e-06 $[n18ll] 
XI11_7/XI2/MN1_9 XI11_7/net20_6_ ysel_9_ XI11_7/net12 gnd MN l=1.8e-07 w=1.5e-06 $[n18ll] 
XI11_7/XI2/MN1_8 XI11_7/net20_7_ ysel_8_ XI11_7/net12 gnd MN l=1.8e-07 w=1.5e-06 $[n18ll] 
XI11_7/XI2/MN1_7 XI11_7/net20_8_ ysel_7_ XI11_7/net12 gnd MN l=1.8e-07 w=1.5e-06 $[n18ll] 
XI11_7/XI2/MN1_6 XI11_7/net20_9_ ysel_6_ XI11_7/net12 gnd MN l=1.8e-07 w=1.5e-06 $[n18ll] 
XI11_7/XI2/MN1_5 XI11_7/net20_10_ ysel_5_ XI11_7/net12 gnd MN l=1.8e-07 w=1.5e-06 $[n18ll] 
XI11_7/XI2/MN1_4 XI11_7/net20_11_ ysel_4_ XI11_7/net12 gnd MN l=1.8e-07 w=1.5e-06 $[n18ll] 
XI11_7/XI2/MN1_3 XI11_7/net20_12_ ysel_3_ XI11_7/net12 gnd MN l=1.8e-07 w=1.5e-06 $[n18ll] 
XI11_7/XI2/MN1_2 XI11_7/net20_13_ ysel_2_ XI11_7/net12 gnd MN l=1.8e-07 w=1.5e-06 $[n18ll] 
XI11_7/XI2/MN1_1 XI11_7/net20_14_ ysel_1_ XI11_7/net12 gnd MN l=1.8e-07 w=1.5e-06 $[n18ll] 
XI11_7/XI2/MN1_0 XI11_7/net20_15_ ysel_0_ XI11_7/net12 gnd MN l=1.8e-07 w=1.5e-06 $[n18ll] 
XI11_7/XI4/MN8 vdd XI11_7/XI4/net8 XI11_7/net12 vdd MP l=1.8e-07 w=6e-06 $[p18ll] 
XI11_7/XI4/MP0 XI11_7/net9 XI11_7/XI4/net23 vdd vdd MP l=1.8e-07 w=6e-06 $[p18ll] 
XI11_7/XI4/MP4 XI11_7/net12 XI11_7/preck vdd vdd MP l=1.8e-07 w=2e-06 $[p18ll] 
XI11_7/XI4/MP1 XI11_7/net9 XI11_7/preck vdd vdd MP l=1.8e-07 w=2e-06 $[p18ll] 
XI11_7/XI4/MP5 XI11_7/net12 XI11_7/preck XI11_7/net9 vdd MP l=1.8e-07 w=5e-07 $[p18ll] 
XI11_7/XI4/MN7 vdd XI11_7/XI4/net090 DOUT_7_ vdd MP l=1.8e-07 w=6e-06 $[p18ll] 
XI11_7/XI4/MP3 gnd XI11_7/XI4/net089 XI11_7/net12 gnd MN l=1.8e-07 w=2e-06 $[n18ll] 
XI11_7/XI4/MN5 XI11_7/net9 XI11_7/XI4/net0103 gnd gnd MN l=1.8e-07 w=2e-06 $[n18ll] 
XI11_7/XI4/MN4 XI11_7/XI4/data_out_ XI11_7/XI4/net32 gnd gnd MN l=1.8e-07 w=1e-06 $[n18ll] 
XI11_7/XI4/MN0 XI11_7/XI4/data_out XI11_7/XI4/net52 gnd gnd MN l=1.8e-07 w=1e-06 $[n18ll] 
XI11_7/XI4/MN9 gnd XI11_7/XI4/net0112 DOUT_7_ gnd MN l=1.8e-07 w=2e-06 $[n18ll] 
XI11_7/XI1_15/MP2 XI11_7/net20_0_ XI11_7/preck XI11_7/net21_0_ vdd MP l=1.8e-07 w=5e-07 $[p18ll] 
XI11_7/XI1_15/MP1 XI11_7/net20_0_ XI11_7/preck vdd vdd MP l=1.8e-07 w=2e-06 $[p18ll] 
XI11_7/XI1_15/MP0 XI11_7/net21_0_ XI11_7/preck vdd vdd MP l=1.8e-07 w=2e-06 $[p18ll] 
XI11_7/XI1_14/MP2 XI11_7/net20_1_ XI11_7/preck XI11_7/net21_1_ vdd MP l=1.8e-07 w=5e-07 $[p18ll] 
XI11_7/XI1_14/MP1 XI11_7/net20_1_ XI11_7/preck vdd vdd MP l=1.8e-07 w=2e-06 $[p18ll] 
XI11_7/XI1_14/MP0 XI11_7/net21_1_ XI11_7/preck vdd vdd MP l=1.8e-07 w=2e-06 $[p18ll] 
XI11_7/XI1_13/MP2 XI11_7/net20_2_ XI11_7/preck XI11_7/net21_2_ vdd MP l=1.8e-07 w=5e-07 $[p18ll] 
XI11_7/XI1_13/MP1 XI11_7/net20_2_ XI11_7/preck vdd vdd MP l=1.8e-07 w=2e-06 $[p18ll] 
XI11_7/XI1_13/MP0 XI11_7/net21_2_ XI11_7/preck vdd vdd MP l=1.8e-07 w=2e-06 $[p18ll] 
XI11_7/XI1_12/MP2 XI11_7/net20_3_ XI11_7/preck XI11_7/net21_3_ vdd MP l=1.8e-07 w=5e-07 $[p18ll] 
XI11_7/XI1_12/MP1 XI11_7/net20_3_ XI11_7/preck vdd vdd MP l=1.8e-07 w=2e-06 $[p18ll] 
XI11_7/XI1_12/MP0 XI11_7/net21_3_ XI11_7/preck vdd vdd MP l=1.8e-07 w=2e-06 $[p18ll] 
XI11_7/XI1_11/MP2 XI11_7/net20_4_ XI11_7/preck XI11_7/net21_4_ vdd MP l=1.8e-07 w=5e-07 $[p18ll] 
XI11_7/XI1_11/MP1 XI11_7/net20_4_ XI11_7/preck vdd vdd MP l=1.8e-07 w=2e-06 $[p18ll] 
XI11_7/XI1_11/MP0 XI11_7/net21_4_ XI11_7/preck vdd vdd MP l=1.8e-07 w=2e-06 $[p18ll] 
XI11_7/XI1_10/MP2 XI11_7/net20_5_ XI11_7/preck XI11_7/net21_5_ vdd MP l=1.8e-07 w=5e-07 $[p18ll] 
XI11_7/XI1_10/MP1 XI11_7/net20_5_ XI11_7/preck vdd vdd MP l=1.8e-07 w=2e-06 $[p18ll] 
XI11_7/XI1_10/MP0 XI11_7/net21_5_ XI11_7/preck vdd vdd MP l=1.8e-07 w=2e-06 $[p18ll] 
XI11_7/XI1_9/MP2 XI11_7/net20_6_ XI11_7/preck XI11_7/net21_6_ vdd MP l=1.8e-07 w=5e-07 $[p18ll] 
XI11_7/XI1_9/MP1 XI11_7/net20_6_ XI11_7/preck vdd vdd MP l=1.8e-07 w=2e-06 $[p18ll] 
XI11_7/XI1_9/MP0 XI11_7/net21_6_ XI11_7/preck vdd vdd MP l=1.8e-07 w=2e-06 $[p18ll] 
XI11_7/XI1_8/MP2 XI11_7/net20_7_ XI11_7/preck XI11_7/net21_7_ vdd MP l=1.8e-07 w=5e-07 $[p18ll] 
XI11_7/XI1_8/MP1 XI11_7/net20_7_ XI11_7/preck vdd vdd MP l=1.8e-07 w=2e-06 $[p18ll] 
XI11_7/XI1_8/MP0 XI11_7/net21_7_ XI11_7/preck vdd vdd MP l=1.8e-07 w=2e-06 $[p18ll] 
XI11_7/XI1_7/MP2 XI11_7/net20_8_ XI11_7/preck XI11_7/net21_8_ vdd MP l=1.8e-07 w=5e-07 $[p18ll] 
XI11_7/XI1_7/MP1 XI11_7/net20_8_ XI11_7/preck vdd vdd MP l=1.8e-07 w=2e-06 $[p18ll] 
XI11_7/XI1_7/MP0 XI11_7/net21_8_ XI11_7/preck vdd vdd MP l=1.8e-07 w=2e-06 $[p18ll] 
XI11_7/XI1_6/MP2 XI11_7/net20_9_ XI11_7/preck XI11_7/net21_9_ vdd MP l=1.8e-07 w=5e-07 $[p18ll] 
XI11_7/XI1_6/MP1 XI11_7/net20_9_ XI11_7/preck vdd vdd MP l=1.8e-07 w=2e-06 $[p18ll] 
XI11_7/XI1_6/MP0 XI11_7/net21_9_ XI11_7/preck vdd vdd MP l=1.8e-07 w=2e-06 $[p18ll] 
XI11_7/XI1_5/MP2 XI11_7/net20_10_ XI11_7/preck XI11_7/net21_10_ vdd MP l=1.8e-07 w=5e-07 $[p18ll] 
XI11_7/XI1_5/MP1 XI11_7/net20_10_ XI11_7/preck vdd vdd MP l=1.8e-07 w=2e-06 $[p18ll] 
XI11_7/XI1_5/MP0 XI11_7/net21_10_ XI11_7/preck vdd vdd MP l=1.8e-07 w=2e-06 $[p18ll] 
XI11_7/XI1_4/MP2 XI11_7/net20_11_ XI11_7/preck XI11_7/net21_11_ vdd MP l=1.8e-07 w=5e-07 $[p18ll] 
XI11_7/XI1_4/MP1 XI11_7/net20_11_ XI11_7/preck vdd vdd MP l=1.8e-07 w=2e-06 $[p18ll] 
XI11_7/XI1_4/MP0 XI11_7/net21_11_ XI11_7/preck vdd vdd MP l=1.8e-07 w=2e-06 $[p18ll] 
XI11_7/XI1_3/MP2 XI11_7/net20_12_ XI11_7/preck XI11_7/net21_12_ vdd MP l=1.8e-07 w=5e-07 $[p18ll] 
XI11_7/XI1_3/MP1 XI11_7/net20_12_ XI11_7/preck vdd vdd MP l=1.8e-07 w=2e-06 $[p18ll] 
XI11_7/XI1_3/MP0 XI11_7/net21_12_ XI11_7/preck vdd vdd MP l=1.8e-07 w=2e-06 $[p18ll] 
XI11_7/XI1_2/MP2 XI11_7/net20_13_ XI11_7/preck XI11_7/net21_13_ vdd MP l=1.8e-07 w=5e-07 $[p18ll] 
XI11_7/XI1_2/MP1 XI11_7/net20_13_ XI11_7/preck vdd vdd MP l=1.8e-07 w=2e-06 $[p18ll] 
XI11_7/XI1_2/MP0 XI11_7/net21_13_ XI11_7/preck vdd vdd MP l=1.8e-07 w=2e-06 $[p18ll] 
XI11_7/XI1_1/MP2 XI11_7/net20_14_ XI11_7/preck XI11_7/net21_14_ vdd MP l=1.8e-07 w=5e-07 $[p18ll] 
XI11_7/XI1_1/MP1 XI11_7/net20_14_ XI11_7/preck vdd vdd MP l=1.8e-07 w=2e-06 $[p18ll] 
XI11_7/XI1_1/MP0 XI11_7/net21_14_ XI11_7/preck vdd vdd MP l=1.8e-07 w=2e-06 $[p18ll] 
XI11_7/XI1_0/MP2 XI11_7/net20_15_ XI11_7/preck XI11_7/net21_15_ vdd MP l=1.8e-07 w=5e-07 $[p18ll] 
XI11_7/XI1_0/MP1 XI11_7/net20_15_ XI11_7/preck vdd vdd MP l=1.8e-07 w=2e-06 $[p18ll] 
XI11_7/XI1_0/MP0 XI11_7/net21_15_ XI11_7/preck vdd vdd MP l=1.8e-07 w=2e-06 $[p18ll] 
XI11_7/XI0/MN0_15 gnd gnd XI11_7/net21_0_ gnd MN l=2.2e-07 w=4.8e-07 $[n18ll] 
XI11_7/XI0/MN0_14 gnd gnd XI11_7/net21_1_ gnd MN l=2.2e-07 w=4.8e-07 $[n18ll] 
XI11_7/XI0/MN0_13 gnd gnd XI11_7/net21_2_ gnd MN l=2.2e-07 w=4.8e-07 $[n18ll] 
XI11_7/XI0/MN0_12 gnd gnd XI11_7/net21_3_ gnd MN l=2.2e-07 w=4.8e-07 $[n18ll] 
XI11_7/XI0/MN0_11 gnd gnd XI11_7/net21_4_ gnd MN l=2.2e-07 w=4.8e-07 $[n18ll] 
XI11_7/XI0/MN0_10 gnd gnd XI11_7/net21_5_ gnd MN l=2.2e-07 w=4.8e-07 $[n18ll] 
XI11_7/XI0/MN0_9 gnd gnd XI11_7/net21_6_ gnd MN l=2.2e-07 w=4.8e-07 $[n18ll] 
XI11_7/XI0/MN0_8 gnd gnd XI11_7/net21_7_ gnd MN l=2.2e-07 w=4.8e-07 $[n18ll] 
XI11_7/XI0/MN0_7 gnd gnd XI11_7/net21_8_ gnd MN l=2.2e-07 w=4.8e-07 $[n18ll] 
XI11_7/XI0/MN0_6 gnd gnd XI11_7/net21_9_ gnd MN l=2.2e-07 w=4.8e-07 $[n18ll] 
XI11_7/XI0/MN0_5 gnd gnd XI11_7/net21_10_ gnd MN l=2.2e-07 w=4.8e-07 $[n18ll] 
XI11_7/XI0/MN0_4 gnd gnd XI11_7/net21_11_ gnd MN l=2.2e-07 w=4.8e-07 $[n18ll] 
XI11_7/XI0/MN0_3 gnd gnd XI11_7/net21_12_ gnd MN l=2.2e-07 w=4.8e-07 $[n18ll] 
XI11_7/XI0/MN0_2 gnd gnd XI11_7/net21_13_ gnd MN l=2.2e-07 w=4.8e-07 $[n18ll] 
XI11_7/XI0/MN0_1 gnd gnd XI11_7/net21_14_ gnd MN l=2.2e-07 w=4.8e-07 $[n18ll] 
XI11_7/XI0/MN0_0 gnd gnd XI11_7/net21_15_ gnd MN l=2.2e-07 w=4.8e-07 $[n18ll] 
XI11_7/XI0/MN1_15 gnd gnd XI11_7/net20_0_ gnd MN l=2.2e-07 w=4.8e-07 $[n18ll] 
XI11_7/XI0/MN1_14 gnd gnd XI11_7/net20_1_ gnd MN l=2.2e-07 w=4.8e-07 $[n18ll] 
XI11_7/XI0/MN1_13 gnd gnd XI11_7/net20_2_ gnd MN l=2.2e-07 w=4.8e-07 $[n18ll] 
XI11_7/XI0/MN1_12 gnd gnd XI11_7/net20_3_ gnd MN l=2.2e-07 w=4.8e-07 $[n18ll] 
XI11_7/XI0/MN1_11 gnd gnd XI11_7/net20_4_ gnd MN l=2.2e-07 w=4.8e-07 $[n18ll] 
XI11_7/XI0/MN1_10 gnd gnd XI11_7/net20_5_ gnd MN l=2.2e-07 w=4.8e-07 $[n18ll] 
XI11_7/XI0/MN1_9 gnd gnd XI11_7/net20_6_ gnd MN l=2.2e-07 w=4.8e-07 $[n18ll] 
XI11_7/XI0/MN1_8 gnd gnd XI11_7/net20_7_ gnd MN l=2.2e-07 w=4.8e-07 $[n18ll] 
XI11_7/XI0/MN1_7 gnd gnd XI11_7/net20_8_ gnd MN l=2.2e-07 w=4.8e-07 $[n18ll] 
XI11_7/XI0/MN1_6 gnd gnd XI11_7/net20_9_ gnd MN l=2.2e-07 w=4.8e-07 $[n18ll] 
XI11_7/XI0/MN1_5 gnd gnd XI11_7/net20_10_ gnd MN l=2.2e-07 w=4.8e-07 $[n18ll] 
XI11_7/XI0/MN1_4 gnd gnd XI11_7/net20_11_ gnd MN l=2.2e-07 w=4.8e-07 $[n18ll] 
XI11_7/XI0/MN1_3 gnd gnd XI11_7/net20_12_ gnd MN l=2.2e-07 w=4.8e-07 $[n18ll] 
XI11_7/XI0/MN1_2 gnd gnd XI11_7/net20_13_ gnd MN l=2.2e-07 w=4.8e-07 $[n18ll] 
XI11_7/XI0/MN1_1 gnd gnd XI11_7/net20_14_ gnd MN l=2.2e-07 w=4.8e-07 $[n18ll] 
XI11_7/XI0/MN1_0 gnd gnd XI11_7/net20_15_ gnd MN l=2.2e-07 w=4.8e-07 $[n18ll] 
XI11_7/XI0/XI0_63/MN0_15 XI11_7/net21_0_ xsel_63_ XI11_7/XI0/XI0_63/d_15_ gnd MN l=2.2e-07 w=2.4e-07 $[n18ll] 
XI11_7/XI0/XI0_63/MN0_14 XI11_7/net21_1_ xsel_63_ XI11_7/XI0/XI0_63/d_14_ gnd MN l=2.2e-07 w=2.4e-07 $[n18ll] 
XI11_7/XI0/XI0_63/MN0_13 XI11_7/net21_2_ xsel_63_ XI11_7/XI0/XI0_63/d_13_ gnd MN l=2.2e-07 w=2.4e-07 $[n18ll] 
XI11_7/XI0/XI0_63/MN0_12 XI11_7/net21_3_ xsel_63_ XI11_7/XI0/XI0_63/d_12_ gnd MN l=2.2e-07 w=2.4e-07 $[n18ll] 
XI11_7/XI0/XI0_63/MN0_11 XI11_7/net21_4_ xsel_63_ XI11_7/XI0/XI0_63/d_11_ gnd MN l=2.2e-07 w=2.4e-07 $[n18ll] 
XI11_7/XI0/XI0_63/MN0_10 XI11_7/net21_5_ xsel_63_ XI11_7/XI0/XI0_63/d_10_ gnd MN l=2.2e-07 w=2.4e-07 $[n18ll] 
XI11_7/XI0/XI0_63/MN0_9 XI11_7/net21_6_ xsel_63_ XI11_7/XI0/XI0_63/d_9_ gnd MN l=2.2e-07 w=2.4e-07 $[n18ll] 
XI11_7/XI0/XI0_63/MN0_8 XI11_7/net21_7_ xsel_63_ XI11_7/XI0/XI0_63/d_8_ gnd MN l=2.2e-07 w=2.4e-07 $[n18ll] 
XI11_7/XI0/XI0_63/MN0_7 XI11_7/net21_8_ xsel_63_ XI11_7/XI0/XI0_63/d_7_ gnd MN l=2.2e-07 w=2.4e-07 $[n18ll] 
XI11_7/XI0/XI0_63/MN0_6 XI11_7/net21_9_ xsel_63_ XI11_7/XI0/XI0_63/d_6_ gnd MN l=2.2e-07 w=2.4e-07 $[n18ll] 
XI11_7/XI0/XI0_63/MN0_5 XI11_7/net21_10_ xsel_63_ XI11_7/XI0/XI0_63/d_5_ gnd MN l=2.2e-07 w=2.4e-07 $[n18ll] 
XI11_7/XI0/XI0_63/MN0_4 XI11_7/net21_11_ xsel_63_ XI11_7/XI0/XI0_63/d_4_ gnd MN l=2.2e-07 w=2.4e-07 $[n18ll] 
XI11_7/XI0/XI0_63/MN0_3 XI11_7/net21_12_ xsel_63_ XI11_7/XI0/XI0_63/d_3_ gnd MN l=2.2e-07 w=2.4e-07 $[n18ll] 
XI11_7/XI0/XI0_63/MN0_2 XI11_7/net21_13_ xsel_63_ XI11_7/XI0/XI0_63/d_2_ gnd MN l=2.2e-07 w=2.4e-07 $[n18ll] 
XI11_7/XI0/XI0_63/MN0_1 XI11_7/net21_14_ xsel_63_ XI11_7/XI0/XI0_63/d_1_ gnd MN l=2.2e-07 w=2.4e-07 $[n18ll] 
XI11_7/XI0/XI0_63/MN0_0 XI11_7/net21_15_ xsel_63_ XI11_7/XI0/XI0_63/d_0_ gnd MN l=2.2e-07 w=2.4e-07 $[n18ll] 
XI11_7/XI0/XI0_63/MN1_15 XI11_7/XI0/XI0_63/d__15_ xsel_63_ XI11_7/net20_0_ gnd MN l=2.2e-07 w=2.4e-07 $[n18ll] 
XI11_7/XI0/XI0_63/MN1_14 XI11_7/XI0/XI0_63/d__14_ xsel_63_ XI11_7/net20_1_ gnd MN l=2.2e-07 w=2.4e-07 $[n18ll] 
XI11_7/XI0/XI0_63/MN1_13 XI11_7/XI0/XI0_63/d__13_ xsel_63_ XI11_7/net20_2_ gnd MN l=2.2e-07 w=2.4e-07 $[n18ll] 
XI11_7/XI0/XI0_63/MN1_12 XI11_7/XI0/XI0_63/d__12_ xsel_63_ XI11_7/net20_3_ gnd MN l=2.2e-07 w=2.4e-07 $[n18ll] 
XI11_7/XI0/XI0_63/MN1_11 XI11_7/XI0/XI0_63/d__11_ xsel_63_ XI11_7/net20_4_ gnd MN l=2.2e-07 w=2.4e-07 $[n18ll] 
XI11_7/XI0/XI0_63/MN1_10 XI11_7/XI0/XI0_63/d__10_ xsel_63_ XI11_7/net20_5_ gnd MN l=2.2e-07 w=2.4e-07 $[n18ll] 
XI11_7/XI0/XI0_63/MN1_9 XI11_7/XI0/XI0_63/d__9_ xsel_63_ XI11_7/net20_6_ gnd MN l=2.2e-07 w=2.4e-07 $[n18ll] 
XI11_7/XI0/XI0_63/MN1_8 XI11_7/XI0/XI0_63/d__8_ xsel_63_ XI11_7/net20_7_ gnd MN l=2.2e-07 w=2.4e-07 $[n18ll] 
XI11_7/XI0/XI0_63/MN1_7 XI11_7/XI0/XI0_63/d__7_ xsel_63_ XI11_7/net20_8_ gnd MN l=2.2e-07 w=2.4e-07 $[n18ll] 
XI11_7/XI0/XI0_63/MN1_6 XI11_7/XI0/XI0_63/d__6_ xsel_63_ XI11_7/net20_9_ gnd MN l=2.2e-07 w=2.4e-07 $[n18ll] 
XI11_7/XI0/XI0_63/MN1_5 XI11_7/XI0/XI0_63/d__5_ xsel_63_ XI11_7/net20_10_ gnd MN l=2.2e-07 w=2.4e-07 $[n18ll] 
XI11_7/XI0/XI0_63/MN1_4 XI11_7/XI0/XI0_63/d__4_ xsel_63_ XI11_7/net20_11_ gnd MN l=2.2e-07 w=2.4e-07 $[n18ll] 
XI11_7/XI0/XI0_63/MN1_3 XI11_7/XI0/XI0_63/d__3_ xsel_63_ XI11_7/net20_12_ gnd MN l=2.2e-07 w=2.4e-07 $[n18ll] 
XI11_7/XI0/XI0_63/MN1_2 XI11_7/XI0/XI0_63/d__2_ xsel_63_ XI11_7/net20_13_ gnd MN l=2.2e-07 w=2.4e-07 $[n18ll] 
XI11_7/XI0/XI0_63/MN1_1 XI11_7/XI0/XI0_63/d__1_ xsel_63_ XI11_7/net20_14_ gnd MN l=2.2e-07 w=2.4e-07 $[n18ll] 
XI11_7/XI0/XI0_63/MN1_0 XI11_7/XI0/XI0_63/d__0_ xsel_63_ XI11_7/net20_15_ gnd MN l=2.2e-07 w=2.4e-07 $[n18ll] 
XI11_7/XI0/XI0_62/MN0_15 XI11_7/net21_0_ xsel_62_ XI11_7/XI0/XI0_62/d_15_ gnd MN l=2.2e-07 w=2.4e-07 $[n18ll] 
XI11_7/XI0/XI0_62/MN0_14 XI11_7/net21_1_ xsel_62_ XI11_7/XI0/XI0_62/d_14_ gnd MN l=2.2e-07 w=2.4e-07 $[n18ll] 
XI11_7/XI0/XI0_62/MN0_13 XI11_7/net21_2_ xsel_62_ XI11_7/XI0/XI0_62/d_13_ gnd MN l=2.2e-07 w=2.4e-07 $[n18ll] 
XI11_7/XI0/XI0_62/MN0_12 XI11_7/net21_3_ xsel_62_ XI11_7/XI0/XI0_62/d_12_ gnd MN l=2.2e-07 w=2.4e-07 $[n18ll] 
XI11_7/XI0/XI0_62/MN0_11 XI11_7/net21_4_ xsel_62_ XI11_7/XI0/XI0_62/d_11_ gnd MN l=2.2e-07 w=2.4e-07 $[n18ll] 
XI11_7/XI0/XI0_62/MN0_10 XI11_7/net21_5_ xsel_62_ XI11_7/XI0/XI0_62/d_10_ gnd MN l=2.2e-07 w=2.4e-07 $[n18ll] 
XI11_7/XI0/XI0_62/MN0_9 XI11_7/net21_6_ xsel_62_ XI11_7/XI0/XI0_62/d_9_ gnd MN l=2.2e-07 w=2.4e-07 $[n18ll] 
XI11_7/XI0/XI0_62/MN0_8 XI11_7/net21_7_ xsel_62_ XI11_7/XI0/XI0_62/d_8_ gnd MN l=2.2e-07 w=2.4e-07 $[n18ll] 
XI11_7/XI0/XI0_62/MN0_7 XI11_7/net21_8_ xsel_62_ XI11_7/XI0/XI0_62/d_7_ gnd MN l=2.2e-07 w=2.4e-07 $[n18ll] 
XI11_7/XI0/XI0_62/MN0_6 XI11_7/net21_9_ xsel_62_ XI11_7/XI0/XI0_62/d_6_ gnd MN l=2.2e-07 w=2.4e-07 $[n18ll] 
XI11_7/XI0/XI0_62/MN0_5 XI11_7/net21_10_ xsel_62_ XI11_7/XI0/XI0_62/d_5_ gnd MN l=2.2e-07 w=2.4e-07 $[n18ll] 
XI11_7/XI0/XI0_62/MN0_4 XI11_7/net21_11_ xsel_62_ XI11_7/XI0/XI0_62/d_4_ gnd MN l=2.2e-07 w=2.4e-07 $[n18ll] 
XI11_7/XI0/XI0_62/MN0_3 XI11_7/net21_12_ xsel_62_ XI11_7/XI0/XI0_62/d_3_ gnd MN l=2.2e-07 w=2.4e-07 $[n18ll] 
XI11_7/XI0/XI0_62/MN0_2 XI11_7/net21_13_ xsel_62_ XI11_7/XI0/XI0_62/d_2_ gnd MN l=2.2e-07 w=2.4e-07 $[n18ll] 
XI11_7/XI0/XI0_62/MN0_1 XI11_7/net21_14_ xsel_62_ XI11_7/XI0/XI0_62/d_1_ gnd MN l=2.2e-07 w=2.4e-07 $[n18ll] 
XI11_7/XI0/XI0_62/MN0_0 XI11_7/net21_15_ xsel_62_ XI11_7/XI0/XI0_62/d_0_ gnd MN l=2.2e-07 w=2.4e-07 $[n18ll] 
XI11_7/XI0/XI0_62/MN1_15 XI11_7/XI0/XI0_62/d__15_ xsel_62_ XI11_7/net20_0_ gnd MN l=2.2e-07 w=2.4e-07 $[n18ll] 
XI11_7/XI0/XI0_62/MN1_14 XI11_7/XI0/XI0_62/d__14_ xsel_62_ XI11_7/net20_1_ gnd MN l=2.2e-07 w=2.4e-07 $[n18ll] 
XI11_7/XI0/XI0_62/MN1_13 XI11_7/XI0/XI0_62/d__13_ xsel_62_ XI11_7/net20_2_ gnd MN l=2.2e-07 w=2.4e-07 $[n18ll] 
XI11_7/XI0/XI0_62/MN1_12 XI11_7/XI0/XI0_62/d__12_ xsel_62_ XI11_7/net20_3_ gnd MN l=2.2e-07 w=2.4e-07 $[n18ll] 
XI11_7/XI0/XI0_62/MN1_11 XI11_7/XI0/XI0_62/d__11_ xsel_62_ XI11_7/net20_4_ gnd MN l=2.2e-07 w=2.4e-07 $[n18ll] 
XI11_7/XI0/XI0_62/MN1_10 XI11_7/XI0/XI0_62/d__10_ xsel_62_ XI11_7/net20_5_ gnd MN l=2.2e-07 w=2.4e-07 $[n18ll] 
XI11_7/XI0/XI0_62/MN1_9 XI11_7/XI0/XI0_62/d__9_ xsel_62_ XI11_7/net20_6_ gnd MN l=2.2e-07 w=2.4e-07 $[n18ll] 
XI11_7/XI0/XI0_62/MN1_8 XI11_7/XI0/XI0_62/d__8_ xsel_62_ XI11_7/net20_7_ gnd MN l=2.2e-07 w=2.4e-07 $[n18ll] 
XI11_7/XI0/XI0_62/MN1_7 XI11_7/XI0/XI0_62/d__7_ xsel_62_ XI11_7/net20_8_ gnd MN l=2.2e-07 w=2.4e-07 $[n18ll] 
XI11_7/XI0/XI0_62/MN1_6 XI11_7/XI0/XI0_62/d__6_ xsel_62_ XI11_7/net20_9_ gnd MN l=2.2e-07 w=2.4e-07 $[n18ll] 
XI11_7/XI0/XI0_62/MN1_5 XI11_7/XI0/XI0_62/d__5_ xsel_62_ XI11_7/net20_10_ gnd MN l=2.2e-07 w=2.4e-07 $[n18ll] 
XI11_7/XI0/XI0_62/MN1_4 XI11_7/XI0/XI0_62/d__4_ xsel_62_ XI11_7/net20_11_ gnd MN l=2.2e-07 w=2.4e-07 $[n18ll] 
XI11_7/XI0/XI0_62/MN1_3 XI11_7/XI0/XI0_62/d__3_ xsel_62_ XI11_7/net20_12_ gnd MN l=2.2e-07 w=2.4e-07 $[n18ll] 
XI11_7/XI0/XI0_62/MN1_2 XI11_7/XI0/XI0_62/d__2_ xsel_62_ XI11_7/net20_13_ gnd MN l=2.2e-07 w=2.4e-07 $[n18ll] 
XI11_7/XI0/XI0_62/MN1_1 XI11_7/XI0/XI0_62/d__1_ xsel_62_ XI11_7/net20_14_ gnd MN l=2.2e-07 w=2.4e-07 $[n18ll] 
XI11_7/XI0/XI0_62/MN1_0 XI11_7/XI0/XI0_62/d__0_ xsel_62_ XI11_7/net20_15_ gnd MN l=2.2e-07 w=2.4e-07 $[n18ll] 
XI11_7/XI0/XI0_61/MN0_15 XI11_7/net21_0_ xsel_61_ XI11_7/XI0/XI0_61/d_15_ gnd MN l=2.2e-07 w=2.4e-07 $[n18ll] 
XI11_7/XI0/XI0_61/MN0_14 XI11_7/net21_1_ xsel_61_ XI11_7/XI0/XI0_61/d_14_ gnd MN l=2.2e-07 w=2.4e-07 $[n18ll] 
XI11_7/XI0/XI0_61/MN0_13 XI11_7/net21_2_ xsel_61_ XI11_7/XI0/XI0_61/d_13_ gnd MN l=2.2e-07 w=2.4e-07 $[n18ll] 
XI11_7/XI0/XI0_61/MN0_12 XI11_7/net21_3_ xsel_61_ XI11_7/XI0/XI0_61/d_12_ gnd MN l=2.2e-07 w=2.4e-07 $[n18ll] 
XI11_7/XI0/XI0_61/MN0_11 XI11_7/net21_4_ xsel_61_ XI11_7/XI0/XI0_61/d_11_ gnd MN l=2.2e-07 w=2.4e-07 $[n18ll] 
XI11_7/XI0/XI0_61/MN0_10 XI11_7/net21_5_ xsel_61_ XI11_7/XI0/XI0_61/d_10_ gnd MN l=2.2e-07 w=2.4e-07 $[n18ll] 
XI11_7/XI0/XI0_61/MN0_9 XI11_7/net21_6_ xsel_61_ XI11_7/XI0/XI0_61/d_9_ gnd MN l=2.2e-07 w=2.4e-07 $[n18ll] 
XI11_7/XI0/XI0_61/MN0_8 XI11_7/net21_7_ xsel_61_ XI11_7/XI0/XI0_61/d_8_ gnd MN l=2.2e-07 w=2.4e-07 $[n18ll] 
XI11_7/XI0/XI0_61/MN0_7 XI11_7/net21_8_ xsel_61_ XI11_7/XI0/XI0_61/d_7_ gnd MN l=2.2e-07 w=2.4e-07 $[n18ll] 
XI11_7/XI0/XI0_61/MN0_6 XI11_7/net21_9_ xsel_61_ XI11_7/XI0/XI0_61/d_6_ gnd MN l=2.2e-07 w=2.4e-07 $[n18ll] 
XI11_7/XI0/XI0_61/MN0_5 XI11_7/net21_10_ xsel_61_ XI11_7/XI0/XI0_61/d_5_ gnd MN l=2.2e-07 w=2.4e-07 $[n18ll] 
XI11_7/XI0/XI0_61/MN0_4 XI11_7/net21_11_ xsel_61_ XI11_7/XI0/XI0_61/d_4_ gnd MN l=2.2e-07 w=2.4e-07 $[n18ll] 
XI11_7/XI0/XI0_61/MN0_3 XI11_7/net21_12_ xsel_61_ XI11_7/XI0/XI0_61/d_3_ gnd MN l=2.2e-07 w=2.4e-07 $[n18ll] 
XI11_7/XI0/XI0_61/MN0_2 XI11_7/net21_13_ xsel_61_ XI11_7/XI0/XI0_61/d_2_ gnd MN l=2.2e-07 w=2.4e-07 $[n18ll] 
XI11_7/XI0/XI0_61/MN0_1 XI11_7/net21_14_ xsel_61_ XI11_7/XI0/XI0_61/d_1_ gnd MN l=2.2e-07 w=2.4e-07 $[n18ll] 
XI11_7/XI0/XI0_61/MN0_0 XI11_7/net21_15_ xsel_61_ XI11_7/XI0/XI0_61/d_0_ gnd MN l=2.2e-07 w=2.4e-07 $[n18ll] 
XI11_7/XI0/XI0_61/MN1_15 XI11_7/XI0/XI0_61/d__15_ xsel_61_ XI11_7/net20_0_ gnd MN l=2.2e-07 w=2.4e-07 $[n18ll] 
XI11_7/XI0/XI0_61/MN1_14 XI11_7/XI0/XI0_61/d__14_ xsel_61_ XI11_7/net20_1_ gnd MN l=2.2e-07 w=2.4e-07 $[n18ll] 
XI11_7/XI0/XI0_61/MN1_13 XI11_7/XI0/XI0_61/d__13_ xsel_61_ XI11_7/net20_2_ gnd MN l=2.2e-07 w=2.4e-07 $[n18ll] 
XI11_7/XI0/XI0_61/MN1_12 XI11_7/XI0/XI0_61/d__12_ xsel_61_ XI11_7/net20_3_ gnd MN l=2.2e-07 w=2.4e-07 $[n18ll] 
XI11_7/XI0/XI0_61/MN1_11 XI11_7/XI0/XI0_61/d__11_ xsel_61_ XI11_7/net20_4_ gnd MN l=2.2e-07 w=2.4e-07 $[n18ll] 
XI11_7/XI0/XI0_61/MN1_10 XI11_7/XI0/XI0_61/d__10_ xsel_61_ XI11_7/net20_5_ gnd MN l=2.2e-07 w=2.4e-07 $[n18ll] 
XI11_7/XI0/XI0_61/MN1_9 XI11_7/XI0/XI0_61/d__9_ xsel_61_ XI11_7/net20_6_ gnd MN l=2.2e-07 w=2.4e-07 $[n18ll] 
XI11_7/XI0/XI0_61/MN1_8 XI11_7/XI0/XI0_61/d__8_ xsel_61_ XI11_7/net20_7_ gnd MN l=2.2e-07 w=2.4e-07 $[n18ll] 
XI11_7/XI0/XI0_61/MN1_7 XI11_7/XI0/XI0_61/d__7_ xsel_61_ XI11_7/net20_8_ gnd MN l=2.2e-07 w=2.4e-07 $[n18ll] 
XI11_7/XI0/XI0_61/MN1_6 XI11_7/XI0/XI0_61/d__6_ xsel_61_ XI11_7/net20_9_ gnd MN l=2.2e-07 w=2.4e-07 $[n18ll] 
XI11_7/XI0/XI0_61/MN1_5 XI11_7/XI0/XI0_61/d__5_ xsel_61_ XI11_7/net20_10_ gnd MN l=2.2e-07 w=2.4e-07 $[n18ll] 
XI11_7/XI0/XI0_61/MN1_4 XI11_7/XI0/XI0_61/d__4_ xsel_61_ XI11_7/net20_11_ gnd MN l=2.2e-07 w=2.4e-07 $[n18ll] 
XI11_7/XI0/XI0_61/MN1_3 XI11_7/XI0/XI0_61/d__3_ xsel_61_ XI11_7/net20_12_ gnd MN l=2.2e-07 w=2.4e-07 $[n18ll] 
XI11_7/XI0/XI0_61/MN1_2 XI11_7/XI0/XI0_61/d__2_ xsel_61_ XI11_7/net20_13_ gnd MN l=2.2e-07 w=2.4e-07 $[n18ll] 
XI11_7/XI0/XI0_61/MN1_1 XI11_7/XI0/XI0_61/d__1_ xsel_61_ XI11_7/net20_14_ gnd MN l=2.2e-07 w=2.4e-07 $[n18ll] 
XI11_7/XI0/XI0_61/MN1_0 XI11_7/XI0/XI0_61/d__0_ xsel_61_ XI11_7/net20_15_ gnd MN l=2.2e-07 w=2.4e-07 $[n18ll] 
XI11_7/XI0/XI0_60/MN0_15 XI11_7/net21_0_ xsel_60_ XI11_7/XI0/XI0_60/d_15_ gnd MN l=2.2e-07 w=2.4e-07 $[n18ll] 
XI11_7/XI0/XI0_60/MN0_14 XI11_7/net21_1_ xsel_60_ XI11_7/XI0/XI0_60/d_14_ gnd MN l=2.2e-07 w=2.4e-07 $[n18ll] 
XI11_7/XI0/XI0_60/MN0_13 XI11_7/net21_2_ xsel_60_ XI11_7/XI0/XI0_60/d_13_ gnd MN l=2.2e-07 w=2.4e-07 $[n18ll] 
XI11_7/XI0/XI0_60/MN0_12 XI11_7/net21_3_ xsel_60_ XI11_7/XI0/XI0_60/d_12_ gnd MN l=2.2e-07 w=2.4e-07 $[n18ll] 
XI11_7/XI0/XI0_60/MN0_11 XI11_7/net21_4_ xsel_60_ XI11_7/XI0/XI0_60/d_11_ gnd MN l=2.2e-07 w=2.4e-07 $[n18ll] 
XI11_7/XI0/XI0_60/MN0_10 XI11_7/net21_5_ xsel_60_ XI11_7/XI0/XI0_60/d_10_ gnd MN l=2.2e-07 w=2.4e-07 $[n18ll] 
XI11_7/XI0/XI0_60/MN0_9 XI11_7/net21_6_ xsel_60_ XI11_7/XI0/XI0_60/d_9_ gnd MN l=2.2e-07 w=2.4e-07 $[n18ll] 
XI11_7/XI0/XI0_60/MN0_8 XI11_7/net21_7_ xsel_60_ XI11_7/XI0/XI0_60/d_8_ gnd MN l=2.2e-07 w=2.4e-07 $[n18ll] 
XI11_7/XI0/XI0_60/MN0_7 XI11_7/net21_8_ xsel_60_ XI11_7/XI0/XI0_60/d_7_ gnd MN l=2.2e-07 w=2.4e-07 $[n18ll] 
XI11_7/XI0/XI0_60/MN0_6 XI11_7/net21_9_ xsel_60_ XI11_7/XI0/XI0_60/d_6_ gnd MN l=2.2e-07 w=2.4e-07 $[n18ll] 
XI11_7/XI0/XI0_60/MN0_5 XI11_7/net21_10_ xsel_60_ XI11_7/XI0/XI0_60/d_5_ gnd MN l=2.2e-07 w=2.4e-07 $[n18ll] 
XI11_7/XI0/XI0_60/MN0_4 XI11_7/net21_11_ xsel_60_ XI11_7/XI0/XI0_60/d_4_ gnd MN l=2.2e-07 w=2.4e-07 $[n18ll] 
XI11_7/XI0/XI0_60/MN0_3 XI11_7/net21_12_ xsel_60_ XI11_7/XI0/XI0_60/d_3_ gnd MN l=2.2e-07 w=2.4e-07 $[n18ll] 
XI11_7/XI0/XI0_60/MN0_2 XI11_7/net21_13_ xsel_60_ XI11_7/XI0/XI0_60/d_2_ gnd MN l=2.2e-07 w=2.4e-07 $[n18ll] 
XI11_7/XI0/XI0_60/MN0_1 XI11_7/net21_14_ xsel_60_ XI11_7/XI0/XI0_60/d_1_ gnd MN l=2.2e-07 w=2.4e-07 $[n18ll] 
XI11_7/XI0/XI0_60/MN0_0 XI11_7/net21_15_ xsel_60_ XI11_7/XI0/XI0_60/d_0_ gnd MN l=2.2e-07 w=2.4e-07 $[n18ll] 
XI11_7/XI0/XI0_60/MN1_15 XI11_7/XI0/XI0_60/d__15_ xsel_60_ XI11_7/net20_0_ gnd MN l=2.2e-07 w=2.4e-07 $[n18ll] 
XI11_7/XI0/XI0_60/MN1_14 XI11_7/XI0/XI0_60/d__14_ xsel_60_ XI11_7/net20_1_ gnd MN l=2.2e-07 w=2.4e-07 $[n18ll] 
XI11_7/XI0/XI0_60/MN1_13 XI11_7/XI0/XI0_60/d__13_ xsel_60_ XI11_7/net20_2_ gnd MN l=2.2e-07 w=2.4e-07 $[n18ll] 
XI11_7/XI0/XI0_60/MN1_12 XI11_7/XI0/XI0_60/d__12_ xsel_60_ XI11_7/net20_3_ gnd MN l=2.2e-07 w=2.4e-07 $[n18ll] 
XI11_7/XI0/XI0_60/MN1_11 XI11_7/XI0/XI0_60/d__11_ xsel_60_ XI11_7/net20_4_ gnd MN l=2.2e-07 w=2.4e-07 $[n18ll] 
XI11_7/XI0/XI0_60/MN1_10 XI11_7/XI0/XI0_60/d__10_ xsel_60_ XI11_7/net20_5_ gnd MN l=2.2e-07 w=2.4e-07 $[n18ll] 
XI11_7/XI0/XI0_60/MN1_9 XI11_7/XI0/XI0_60/d__9_ xsel_60_ XI11_7/net20_6_ gnd MN l=2.2e-07 w=2.4e-07 $[n18ll] 
XI11_7/XI0/XI0_60/MN1_8 XI11_7/XI0/XI0_60/d__8_ xsel_60_ XI11_7/net20_7_ gnd MN l=2.2e-07 w=2.4e-07 $[n18ll] 
XI11_7/XI0/XI0_60/MN1_7 XI11_7/XI0/XI0_60/d__7_ xsel_60_ XI11_7/net20_8_ gnd MN l=2.2e-07 w=2.4e-07 $[n18ll] 
XI11_7/XI0/XI0_60/MN1_6 XI11_7/XI0/XI0_60/d__6_ xsel_60_ XI11_7/net20_9_ gnd MN l=2.2e-07 w=2.4e-07 $[n18ll] 
XI11_7/XI0/XI0_60/MN1_5 XI11_7/XI0/XI0_60/d__5_ xsel_60_ XI11_7/net20_10_ gnd MN l=2.2e-07 w=2.4e-07 $[n18ll] 
XI11_7/XI0/XI0_60/MN1_4 XI11_7/XI0/XI0_60/d__4_ xsel_60_ XI11_7/net20_11_ gnd MN l=2.2e-07 w=2.4e-07 $[n18ll] 
XI11_7/XI0/XI0_60/MN1_3 XI11_7/XI0/XI0_60/d__3_ xsel_60_ XI11_7/net20_12_ gnd MN l=2.2e-07 w=2.4e-07 $[n18ll] 
XI11_7/XI0/XI0_60/MN1_2 XI11_7/XI0/XI0_60/d__2_ xsel_60_ XI11_7/net20_13_ gnd MN l=2.2e-07 w=2.4e-07 $[n18ll] 
XI11_7/XI0/XI0_60/MN1_1 XI11_7/XI0/XI0_60/d__1_ xsel_60_ XI11_7/net20_14_ gnd MN l=2.2e-07 w=2.4e-07 $[n18ll] 
XI11_7/XI0/XI0_60/MN1_0 XI11_7/XI0/XI0_60/d__0_ xsel_60_ XI11_7/net20_15_ gnd MN l=2.2e-07 w=2.4e-07 $[n18ll] 
XI11_7/XI0/XI0_59/MN0_15 XI11_7/net21_0_ xsel_59_ XI11_7/XI0/XI0_59/d_15_ gnd MN l=2.2e-07 w=2.4e-07 $[n18ll] 
XI11_7/XI0/XI0_59/MN0_14 XI11_7/net21_1_ xsel_59_ XI11_7/XI0/XI0_59/d_14_ gnd MN l=2.2e-07 w=2.4e-07 $[n18ll] 
XI11_7/XI0/XI0_59/MN0_13 XI11_7/net21_2_ xsel_59_ XI11_7/XI0/XI0_59/d_13_ gnd MN l=2.2e-07 w=2.4e-07 $[n18ll] 
XI11_7/XI0/XI0_59/MN0_12 XI11_7/net21_3_ xsel_59_ XI11_7/XI0/XI0_59/d_12_ gnd MN l=2.2e-07 w=2.4e-07 $[n18ll] 
XI11_7/XI0/XI0_59/MN0_11 XI11_7/net21_4_ xsel_59_ XI11_7/XI0/XI0_59/d_11_ gnd MN l=2.2e-07 w=2.4e-07 $[n18ll] 
XI11_7/XI0/XI0_59/MN0_10 XI11_7/net21_5_ xsel_59_ XI11_7/XI0/XI0_59/d_10_ gnd MN l=2.2e-07 w=2.4e-07 $[n18ll] 
XI11_7/XI0/XI0_59/MN0_9 XI11_7/net21_6_ xsel_59_ XI11_7/XI0/XI0_59/d_9_ gnd MN l=2.2e-07 w=2.4e-07 $[n18ll] 
XI11_7/XI0/XI0_59/MN0_8 XI11_7/net21_7_ xsel_59_ XI11_7/XI0/XI0_59/d_8_ gnd MN l=2.2e-07 w=2.4e-07 $[n18ll] 
XI11_7/XI0/XI0_59/MN0_7 XI11_7/net21_8_ xsel_59_ XI11_7/XI0/XI0_59/d_7_ gnd MN l=2.2e-07 w=2.4e-07 $[n18ll] 
XI11_7/XI0/XI0_59/MN0_6 XI11_7/net21_9_ xsel_59_ XI11_7/XI0/XI0_59/d_6_ gnd MN l=2.2e-07 w=2.4e-07 $[n18ll] 
XI11_7/XI0/XI0_59/MN0_5 XI11_7/net21_10_ xsel_59_ XI11_7/XI0/XI0_59/d_5_ gnd MN l=2.2e-07 w=2.4e-07 $[n18ll] 
XI11_7/XI0/XI0_59/MN0_4 XI11_7/net21_11_ xsel_59_ XI11_7/XI0/XI0_59/d_4_ gnd MN l=2.2e-07 w=2.4e-07 $[n18ll] 
XI11_7/XI0/XI0_59/MN0_3 XI11_7/net21_12_ xsel_59_ XI11_7/XI0/XI0_59/d_3_ gnd MN l=2.2e-07 w=2.4e-07 $[n18ll] 
XI11_7/XI0/XI0_59/MN0_2 XI11_7/net21_13_ xsel_59_ XI11_7/XI0/XI0_59/d_2_ gnd MN l=2.2e-07 w=2.4e-07 $[n18ll] 
XI11_7/XI0/XI0_59/MN0_1 XI11_7/net21_14_ xsel_59_ XI11_7/XI0/XI0_59/d_1_ gnd MN l=2.2e-07 w=2.4e-07 $[n18ll] 
XI11_7/XI0/XI0_59/MN0_0 XI11_7/net21_15_ xsel_59_ XI11_7/XI0/XI0_59/d_0_ gnd MN l=2.2e-07 w=2.4e-07 $[n18ll] 
XI11_7/XI0/XI0_59/MN1_15 XI11_7/XI0/XI0_59/d__15_ xsel_59_ XI11_7/net20_0_ gnd MN l=2.2e-07 w=2.4e-07 $[n18ll] 
XI11_7/XI0/XI0_59/MN1_14 XI11_7/XI0/XI0_59/d__14_ xsel_59_ XI11_7/net20_1_ gnd MN l=2.2e-07 w=2.4e-07 $[n18ll] 
XI11_7/XI0/XI0_59/MN1_13 XI11_7/XI0/XI0_59/d__13_ xsel_59_ XI11_7/net20_2_ gnd MN l=2.2e-07 w=2.4e-07 $[n18ll] 
XI11_7/XI0/XI0_59/MN1_12 XI11_7/XI0/XI0_59/d__12_ xsel_59_ XI11_7/net20_3_ gnd MN l=2.2e-07 w=2.4e-07 $[n18ll] 
XI11_7/XI0/XI0_59/MN1_11 XI11_7/XI0/XI0_59/d__11_ xsel_59_ XI11_7/net20_4_ gnd MN l=2.2e-07 w=2.4e-07 $[n18ll] 
XI11_7/XI0/XI0_59/MN1_10 XI11_7/XI0/XI0_59/d__10_ xsel_59_ XI11_7/net20_5_ gnd MN l=2.2e-07 w=2.4e-07 $[n18ll] 
XI11_7/XI0/XI0_59/MN1_9 XI11_7/XI0/XI0_59/d__9_ xsel_59_ XI11_7/net20_6_ gnd MN l=2.2e-07 w=2.4e-07 $[n18ll] 
XI11_7/XI0/XI0_59/MN1_8 XI11_7/XI0/XI0_59/d__8_ xsel_59_ XI11_7/net20_7_ gnd MN l=2.2e-07 w=2.4e-07 $[n18ll] 
XI11_7/XI0/XI0_59/MN1_7 XI11_7/XI0/XI0_59/d__7_ xsel_59_ XI11_7/net20_8_ gnd MN l=2.2e-07 w=2.4e-07 $[n18ll] 
XI11_7/XI0/XI0_59/MN1_6 XI11_7/XI0/XI0_59/d__6_ xsel_59_ XI11_7/net20_9_ gnd MN l=2.2e-07 w=2.4e-07 $[n18ll] 
XI11_7/XI0/XI0_59/MN1_5 XI11_7/XI0/XI0_59/d__5_ xsel_59_ XI11_7/net20_10_ gnd MN l=2.2e-07 w=2.4e-07 $[n18ll] 
XI11_7/XI0/XI0_59/MN1_4 XI11_7/XI0/XI0_59/d__4_ xsel_59_ XI11_7/net20_11_ gnd MN l=2.2e-07 w=2.4e-07 $[n18ll] 
XI11_7/XI0/XI0_59/MN1_3 XI11_7/XI0/XI0_59/d__3_ xsel_59_ XI11_7/net20_12_ gnd MN l=2.2e-07 w=2.4e-07 $[n18ll] 
XI11_7/XI0/XI0_59/MN1_2 XI11_7/XI0/XI0_59/d__2_ xsel_59_ XI11_7/net20_13_ gnd MN l=2.2e-07 w=2.4e-07 $[n18ll] 
XI11_7/XI0/XI0_59/MN1_1 XI11_7/XI0/XI0_59/d__1_ xsel_59_ XI11_7/net20_14_ gnd MN l=2.2e-07 w=2.4e-07 $[n18ll] 
XI11_7/XI0/XI0_59/MN1_0 XI11_7/XI0/XI0_59/d__0_ xsel_59_ XI11_7/net20_15_ gnd MN l=2.2e-07 w=2.4e-07 $[n18ll] 
XI11_7/XI0/XI0_58/MN0_15 XI11_7/net21_0_ xsel_58_ XI11_7/XI0/XI0_58/d_15_ gnd MN l=2.2e-07 w=2.4e-07 $[n18ll] 
XI11_7/XI0/XI0_58/MN0_14 XI11_7/net21_1_ xsel_58_ XI11_7/XI0/XI0_58/d_14_ gnd MN l=2.2e-07 w=2.4e-07 $[n18ll] 
XI11_7/XI0/XI0_58/MN0_13 XI11_7/net21_2_ xsel_58_ XI11_7/XI0/XI0_58/d_13_ gnd MN l=2.2e-07 w=2.4e-07 $[n18ll] 
XI11_7/XI0/XI0_58/MN0_12 XI11_7/net21_3_ xsel_58_ XI11_7/XI0/XI0_58/d_12_ gnd MN l=2.2e-07 w=2.4e-07 $[n18ll] 
XI11_7/XI0/XI0_58/MN0_11 XI11_7/net21_4_ xsel_58_ XI11_7/XI0/XI0_58/d_11_ gnd MN l=2.2e-07 w=2.4e-07 $[n18ll] 
XI11_7/XI0/XI0_58/MN0_10 XI11_7/net21_5_ xsel_58_ XI11_7/XI0/XI0_58/d_10_ gnd MN l=2.2e-07 w=2.4e-07 $[n18ll] 
XI11_7/XI0/XI0_58/MN0_9 XI11_7/net21_6_ xsel_58_ XI11_7/XI0/XI0_58/d_9_ gnd MN l=2.2e-07 w=2.4e-07 $[n18ll] 
XI11_7/XI0/XI0_58/MN0_8 XI11_7/net21_7_ xsel_58_ XI11_7/XI0/XI0_58/d_8_ gnd MN l=2.2e-07 w=2.4e-07 $[n18ll] 
XI11_7/XI0/XI0_58/MN0_7 XI11_7/net21_8_ xsel_58_ XI11_7/XI0/XI0_58/d_7_ gnd MN l=2.2e-07 w=2.4e-07 $[n18ll] 
XI11_7/XI0/XI0_58/MN0_6 XI11_7/net21_9_ xsel_58_ XI11_7/XI0/XI0_58/d_6_ gnd MN l=2.2e-07 w=2.4e-07 $[n18ll] 
XI11_7/XI0/XI0_58/MN0_5 XI11_7/net21_10_ xsel_58_ XI11_7/XI0/XI0_58/d_5_ gnd MN l=2.2e-07 w=2.4e-07 $[n18ll] 
XI11_7/XI0/XI0_58/MN0_4 XI11_7/net21_11_ xsel_58_ XI11_7/XI0/XI0_58/d_4_ gnd MN l=2.2e-07 w=2.4e-07 $[n18ll] 